/*--------------------------------*- C++ -*----------------------------------*\
| =========                 |                                                 |
| \\      /  F ield         | OpenFOAM: The Open Source CFD Toolbox           |
|  \\    /   O peration     | Version:  2.1.0                                 |
|   \\  /    A nd           | Web:      www.OpenFOAM.org                      |
|    \\/     M anipulation  |                                                 |
\*---------------------------------------------------------------------------*/
FoamFile
{
    version     2.0;
    format      ascii;
    class       dictionary;
    location    "constant";
    object      ANNProperties;
}
// * * * * * * * * * * * * * * * * * * * * * * * * * * * * * * * * * * * * * //


ANN_scaler         MinMax;

in_scale
{
in_1_max       1.000000;
in_1_min       0.000000;
in_2_max       0.990000;
in_2_min       0.000000;
in_3_max       1.000000;
in_3_min       0.000000;
}

out_scale
{
out_1_max       1.000000;
out_1_min       0.000000;
out_2_max       0.001811;
out_2_min       0.000000;
out_3_max       0.000042;
out_3_min       -0.000000;
out_4_max       0.000294;
out_4_min       -0.000000;
out_5_max       0.233000;
out_5_min       0.000000;
out_6_max       0.009359;
out_6_min       0.000000;
out_7_max       0.001869;
out_7_min       -0.000000;
out_8_max       0.004594;
out_8_min       -0.000000;
out_9_max       0.130066;
out_9_min       0.000000;
out_10_max       0.000191;
out_10_min       0.000000;
out_11_max       0.000109;
out_11_min       0.000000;
out_12_max       0.000003;
out_12_min       -0.000000;
out_13_max       0.000004;
out_13_min       -0.000000;
out_14_max       0.000031;
out_14_min       -0.000000;
out_15_max       0.000003;
out_15_min       -0.000000;
out_16_max       0.001645;
out_16_min       -0.000000;
out_17_max       0.102954;
out_17_min       0.000000;
out_18_max       0.137106;
out_18_min       0.000000;
out_19_max       0.000046;
out_19_min       -0.000000;
out_20_max       0.000008;
out_20_min       -0.000000;
out_21_max       0.000816;
out_21_min       0.000000;
out_22_max       0.000001;
out_22_min       -0.000000;
out_23_max       0.015612;
out_23_min       0.000000;
out_24_max       0.000023;
out_24_min       -0.000000;
out_25_max       0.007029;
out_25_min       0.000000;
out_26_max       0.000053;
out_26_min       -0.000000;
out_27_max       0.002130;
out_27_min       0.000000;
out_28_max       0.000032;
out_28_min       -0.000000;
out_29_max       0.001325;
out_29_min       0.000000;
out_30_max       0.000009;
out_30_min       0.000000;
out_31_max       0.000000;
out_31_min       -0.000000;
out_32_max       0.000000;
out_32_min       -0.000000;
out_33_max       0.000000;
out_33_min       -0.000000;
out_34_max       0.000005;
out_34_min       0.000000;
out_35_max       0.000000;
out_35_min       -0.000000;
out_36_max       0.000153;
out_36_min       0.000000;
out_37_max       0.000002;
out_37_min       0.000000;
out_38_max       0.000001;
out_38_min       0.000000;
out_39_max       0.000000;
out_39_min       -0.000000;
out_40_max       0.000000;
out_40_min       -0.000000;
out_41_max       0.000046;
out_41_min       0.000000;
out_42_max       0.000000;
out_42_min       -0.000000;
out_43_max       0.000000;
out_43_min       -0.000000;
out_44_max       0.000001;
out_44_min       0.000000;
out_45_max       0.000005;
out_45_min       0.000000;
out_46_max       0.000000;
out_46_min       -0.000000;
out_47_max       0.767000;
out_47_min       0.000000;
out_48_max       0.000000;
out_48_min       -0.000000;
out_49_max       0.000000;
out_49_min       -0.000000;
out_50_max       0.000049;
out_50_min       0.000000;
out_51_max       0.000003;
out_51_min       -0.000000;
out_52_max       0.000063;
out_52_min       0.000000;
out_53_max       0.000000;
out_53_min       0.000000;
out_54_max       2230.450000;
out_54_min       283.937000;
out_55_max       21531.300000;
out_55_min       -0.000000;
}

range_min         0;
range_max         1;
nr_features         3;

// ************************************************************************* //