/*--------------------------------*- C++ -*----------------------------------*\
| =========                 |                                                 |
| \\      /  F ield         | OpenFOAM: The Open Source CFD Toolbox           |
|  \\    /   O peration     | Version:  2.1.0                                 |
|   \\  /    A nd           | Web:      www.OpenFOAM.org                      |
|    \\/     M anipulation  |                                                 |
\*---------------------------------------------------------------------------*/
FoamFile
{
    version     2.0;
    format      ascii;
    class       dictionary;
    location    "constant";
    object      ANNProperties;
}
// * * * * * * * * * * * * * * * * * * * * * * * * * * * * * * * * * * * * * //


ANN_scaler         Standard;

in_scale
{
in_1_mean      0.6189097001948289;
in_1_var        0.1460268603966681;
in_2_mean      0.1233020052728307;
in_2_var        0.0460363619587453;
in_3_mean      0.0227041959005622;
in_3_var        0.0117751780798024;
in_4_mean      0.0226850547833277;
in_4_var        0.0183916473407069;
in_5_mean      0.5890858952811089;
in_5_var        0.0866789629602508;
in_6_mean      0.2023840267463410;
in_6_var        0.0635979812091574;
in_7_mean      0.0302371340690034;
in_7_var        0.0275004299986486;
in_8_mean      0.0410939432932561;
in_8_var        0.0354489773583661;
in_9_mean      0.3812111577886150;
in_9_var        0.1257079662014378;
in_10_mean      0.0546334149975588;
in_10_var        0.0204836759310683;
in_11_mean      0.0558921074779485;
in_11_var        0.0232053420863435;
in_12_mean      0.0028619176057841;
in_12_var        0.0045050041001221;
in_13_mean      0.0047528490079720;
in_13_var        0.0060473105704344;
in_14_mean      0.0125421842559400;
in_14_var        0.0118451120188378;
in_15_mean      0.0066142748211168;
in_15_var        0.0064181870020539;
in_16_mean      0.0581234079273518;
in_16_var        0.0363910212212004;
in_17_mean      0.3325320863635579;
in_17_var        0.1222863920186432;
in_18_mean      0.2781165816902182;
in_18_var        0.1045206807778807;
in_19_mean      0.0165094959740062;
in_19_var        0.0133827031668566;
in_20_mean      0.0096979760859919;
in_20_var        0.0083379423658690;
in_21_mean      0.0922402924301682;
in_21_var        0.0382297112481451;
in_22_mean      0.0034658464505631;
in_22_var        0.0042178016602055;
in_23_mean      0.1299355612928975;
in_23_var        0.0606122288227073;
in_24_mean      0.0125668196646233;
in_24_var        0.0119645793626537;
in_25_mean      0.1627199268968157;
in_25_var        0.0657261062697161;
in_26_mean      0.0236862856877048;
in_26_var        0.0150764642887726;
in_27_mean      0.1269080332935977;
in_27_var        0.0491517921970461;
in_28_mean      0.0138202548328202;
in_28_var        0.0131528315249871;
in_29_mean      0.0999353199386237;
in_29_var        0.0430191977158139;
in_30_mean      0.0151637763261591;
in_30_var        0.0079521977229166;
in_31_mean      0.0022802596230006;
in_31_var        0.0026016212048511;
in_32_mean      0.0030093807651210;
in_32_var        0.0024126160964383;
in_33_mean      0.0043520418187778;
in_33_var        0.0028030007773167;
in_34_mean      0.0109644295070266;
in_34_var        0.0053463341932847;
in_35_mean      0.0015827063200566;
in_35_var        0.0014889654547935;
in_36_mean      0.0197905050578337;
in_36_var        0.0122280922913370;
in_37_mean      0.0098805529484315;
in_37_var        0.0054206966778586;
in_38_mean      0.0107949351214275;
in_38_var        0.0043010134263650;
in_39_mean      0.0032988781690680;
in_39_var        0.0020264033739023;
in_40_mean      0.0012991518540740;
in_40_var        0.0017154086392183;
in_41_mean      0.0182983968065301;
in_41_var        0.0103894526014584;
in_42_mean      0.0018375497677541;
in_42_var        0.0011615826741068;
in_43_mean      0.0014679568483795;
in_43_var        0.0016228574507091;
in_44_mean      0.0070804674377341;
in_44_var        0.0041040052248133;
in_45_mean      0.0117917956126276;
in_45_var        0.0065886231710260;
in_46_mean      0.0034829984470412;
in_46_var        0.0028006773452268;
in_47_mean      0.8797880293110909;
in_47_var        0.0341805786169397;
in_48_mean      0.0000000010027365;
in_48_var        0.0000000006663486;
in_49_mean      0.0071323361577407;
in_49_var        0.0038739570743223;
in_50_mean      0.0438338157548762;
in_50_var        0.0191530684879623;
in_51_mean      0.0138077402054991;
in_51_var        0.0078698001508806;
in_52_mean      0.0387526880193596;
in_52_var        0.0149610597677712;
in_53_mean      4.9787791157887860;
in_53_var        0.5910885844006530;
in_54_mean      2.6410769317781932;
in_54_var        1.9505290714988437;
}

out_scale
{
out_1_mean      0.6189097001948289;
out_1_var       0.1460268603966681;
out_2_mean      0.1233020052728307;
out_2_var       0.0460363619587453;
out_3_mean      0.0227041959005622;
out_3_var       0.0117751780798024;
out_4_mean      0.0226850547833277;
out_4_var       0.0183916473407069;
out_5_mean      0.5890858952811089;
out_5_var       0.0866789629602508;
out_6_mean      0.2023840267463410;
out_6_var       0.0635979812091574;
out_7_mean      0.0302371340690034;
out_7_var       0.0275004299986486;
out_8_mean      0.0410939432932561;
out_8_var       0.0354489773583661;
out_9_mean      0.3812111577886150;
out_9_var       0.1257079662014378;
out_10_mean      0.0546334149975588;
out_10_var       0.0204836759310683;
out_11_mean      0.0558921074779485;
out_11_var       0.0232053420863435;
out_12_mean      0.0028619176057841;
out_12_var       0.0045050041001221;
out_13_mean      0.0047528490079720;
out_13_var       0.0060473105704344;
out_14_mean      0.0125421842559400;
out_14_var       0.0118451120188378;
out_15_mean      0.0066142748211168;
out_15_var       0.0064181870020539;
out_16_mean      0.0581234079273518;
out_16_var       0.0363910212212004;
out_17_mean      0.3325320863635579;
out_17_var       0.1222863920186432;
out_18_mean      0.2781165816902182;
out_18_var       0.1045206807778807;
out_19_mean      0.0165094959740062;
out_19_var       0.0133827031668566;
out_20_mean      0.0096979760859919;
out_20_var       0.0083379423658690;
out_21_mean      0.0922402924301682;
out_21_var       0.0382297112481451;
out_22_mean      0.0034658464505631;
out_22_var       0.0042178016602055;
out_23_mean      0.1299355612928975;
out_23_var       0.0606122288227073;
out_24_mean      0.0125668196646233;
out_24_var       0.0119645793626537;
out_25_mean      0.1627199268968157;
out_25_var       0.0657261062697161;
out_26_mean      0.0236862856877048;
out_26_var       0.0150764642887726;
out_27_mean      0.1269080332935977;
out_27_var       0.0491517921970461;
out_28_mean      0.0138202548328202;
out_28_var       0.0131528315249871;
out_29_mean      0.0999353199386237;
out_29_var       0.0430191977158139;
out_30_mean      0.0151637763261591;
out_30_var       0.0079521977229166;
out_31_mean      0.0022802596230006;
out_31_var       0.0026016212048511;
out_32_mean      0.0030093807651210;
out_32_var       0.0024126160964383;
out_33_mean      0.0043520418187778;
out_33_var       0.0028030007773167;
out_34_mean      0.0109644295070266;
out_34_var       0.0053463341932847;
out_35_mean      0.0015827063200566;
out_35_var       0.0014889654547935;
out_36_mean      0.0197905050578337;
out_36_var       0.0122280922913370;
out_37_mean      0.0098805529484315;
out_37_var       0.0054206966778586;
out_38_mean      0.0107949351214275;
out_38_var       0.0043010134263650;
out_39_mean      0.0032988781690680;
out_39_var       0.0020264033739023;
out_40_mean      0.0012991518540740;
out_40_var       0.0017154086392183;
out_41_mean      0.0182983968065301;
out_41_var       0.0103894526014584;
out_42_mean      0.0018375497677541;
out_42_var       0.0011615826741068;
out_43_mean      0.0014679568483795;
out_43_var       0.0016228574507091;
out_44_mean      0.0070804674377341;
out_44_var       0.0041040052248133;
out_45_mean      0.0117917956126276;
out_45_var       0.0065886231710260;
out_46_mean      0.0034829984470412;
out_46_var       0.0028006773452268;
out_47_mean      0.8797880293110909;
out_47_var       0.0341805786169397;
out_48_mean      0.0000000010027365;
out_48_var       0.0000000006663486;
out_49_mean      0.0071323361577407;
out_49_var       0.0038739570743223;
out_50_mean      0.0438338157548762;
out_50_var       0.0191530684879623;
out_51_mean      0.0138077402054991;
out_51_var       0.0078698001508806;
out_52_mean      0.0387526880193596;
out_52_var       0.0149610597677712;
out_53_mean      4.9787791157887860;
out_53_var       0.5910885844006530;
out_54_mean      2.6410769317781932;
out_54_var       1.9505290714988437;
}
nr_features         54;

input_layer         //input_1;
output_layer        //dense_2;

// ************************************************************************* //