/*--------------------------------*- C++ -*----------------------------------*\
| =========                 |                                                 |
| \\      /  F ield         | OpenFOAM: The Open Source CFD Toolbox           |
|  \\    /   O peration     | Version:  2.1.0                                 |
|   \\  /    A nd           | Web:      www.OpenFOAM.org                      |
|    \\/     M anipulation  |                                                 |
\*---------------------------------------------------------------------------*/
FoamFile
{
    version     2.0;
    format      ascii;
    class       dictionary;
    location    "constant";
    object      ANNProperties;
}
// * * * * * * * * * * * * * * * * * * * * * * * * * * * * * * * * * * * * * //


ANN_scaler         MinMax;

in_scale
{
in_1_max       1.000000;
in_1_min       0.000000;
in_2_max       1.000000;
in_2_min       0.000000;
in_3_max       0.990000;
in_3_min       0.000000;
}

out_scale
{
out_1_max       2230.450000;
out_1_min       283.937000;
out_2_max       1.000000;
out_2_min       0.000000;
out_3_max       0.233000;
out_3_min       0.000000;
out_4_max       0.137106;
out_4_min       0.000000;
out_5_max       0.102954;
out_5_min       0.000000;
out_6_max       0.130066;
out_6_min       0.000000;
out_7_max       0.009359;
out_7_min       0.000000;
out_8_max       0.004594;
out_8_min       -0.000000;
out_9_max       21531.300000;
out_9_min       -0.000000;
}

range_min         0;
range_max         1;

// ************************************************************************* //