/*--------------------------------*- C++ -*----------------------------------*\
| =========                 |                                                 |
| \\      /  F ield         | OpenFOAM: The Open Source CFD Toolbox           |
|  \\    /   O peration     | Version:  2.1.0                                 |
|   \\  /    A nd           | Web:      www.OpenFOAM.org                      |
|    \\/     M anipulation  |                                                 |
\*---------------------------------------------------------------------------*/
FoamFile
{
    version     2.0;
    format      ascii;
    class       dictionary;
    location    "constant";
    object      ANNProperties;
}
// * * * * * * * * * * * * * * * * * * * * * * * * * * * * * * * * * * * * * //


ANN_scaler         MinMax;

in_scale
{
in_1_max       1.0000000000000000;
in_1_min       0.0000000000000000;
in_2_max       0.9900000000000000;
in_2_min       0.0000000000000000;
in_3_max       1.0000000000000000;
in_3_min       0.0000000000000000;
}

out_scale
{
out_1_max       1.0000000000000000;
out_1_min       0.0000000000000000;
out_2_max       0.0018110100000000;
out_2_min       0.0000000000000000;
out_3_max       0.0000422942000000;
out_3_min       -0.0000000000001812;
out_4_max       0.0002939690000000;
out_4_min       -0.0000000000000000;
out_5_max       0.2330000000000000;
out_5_min       0.0000000000000000;
out_6_max       0.0093588300000000;
out_6_min       0.0000000000000000;
out_7_max       0.0018688300000000;
out_7_min       -0.0000000000000000;
out_8_max       0.0045941800000000;
out_8_min       -0.0000000000000136;
out_9_max       0.1300660000000000;
out_9_min       0.0000000000000000;
out_10_max       0.0001910800000000;
out_10_min       0.0000000000000000;
out_11_max       0.0001089070000000;
out_11_min       0.0000000000000000;
out_12_max       0.0000031606200000;
out_12_min       -0.0000000000000000;
out_13_max       0.0000038747300000;
out_13_min       -0.0000000000000000;
out_14_max       0.0000307147000000;
out_14_min       -0.0000000000000000;
out_15_max       0.0000028994300000;
out_15_min       -0.0000000000000000;
out_16_max       0.0016445500000000;
out_16_min       -0.0000000002430600;
out_17_max       0.1029540000000000;
out_17_min       0.0000000000000000;
out_18_max       0.1371060000000000;
out_18_min       0.0000000000000000;
out_19_max       0.0000456767000000;
out_19_min       -0.0000000000000000;
out_20_max       0.0000075751600000;
out_20_min       -0.0000000000000000;
out_21_max       0.0008160390000000;
out_21_min       0.0000000000000000;
out_22_max       0.0000007894550000;
out_22_min       -0.0000000000000000;
out_23_max       0.0156122000000000;
out_23_min       0.0000000000000000;
out_24_max       0.0000230053000000;
out_24_min       -0.0000000000000000;
out_25_max       0.0070286800000000;
out_25_min       0.0000000000000000;
out_26_max       0.0000528074000000;
out_26_min       -0.0000000000000000;
out_27_max       0.0021304500000000;
out_27_min       0.0000000000000000;
out_28_max       0.0000323019000000;
out_28_min       -0.0000000000000000;
out_29_max       0.0013252900000000;
out_29_min       0.0000000000000000;
out_30_max       0.0000093386700000;
out_30_min       0.0000000000000000;
out_31_max       0.0000003430760000;
out_31_min       -0.0000000000000000;
out_32_max       0.0000001181180000;
out_32_min       -0.0000000000000000;
out_33_max       0.0000002549010000;
out_33_min       -0.0000000000000000;
out_34_max       0.0000046484300000;
out_34_min       0.0000000000000000;
out_35_max       0.0000000131919000;
out_35_min       -0.0000000000000000;
out_36_max       0.0001526760000000;
out_36_min       0.0000000000000000;
out_37_max       0.0000023763100000;
out_37_min       0.0000000000000000;
out_38_max       0.0000012140500000;
out_38_min       0.0000000000000000;
out_39_max       0.0000000443775000;
out_39_min       -0.0000000000000002;
out_40_max       0.0000000625194000;
out_40_min       -0.0000000000000000;
out_41_max       0.0000458719000000;
out_41_min       0.0000000000000000;
out_42_max       0.0000000094422400;
out_42_min       -0.0000000000000000;
out_43_max       0.0000000124927000;
out_43_min       -0.0000000000000000;
out_44_max       0.0000007815670000;
out_44_min       0.0000000000000000;
out_45_max       0.0000045878000000;
out_45_min       0.0000000000000000;
out_46_max       0.0000001894180000;
out_46_min       -0.0000000000000000;
out_47_max       0.7670000000000000;
out_47_min       0.0000000000000000;
out_48_max       0.0000000000000000;
out_48_min       -0.0000000000000000;
out_49_max       0.0000004461780000;
out_49_min       -0.0000000000000213;
out_50_max       0.0000492280000000;
out_50_min       0.0000000000000000;
out_51_max       0.0000029734500000;
out_51_min       -0.0000000000000000;
out_52_max       0.0000632920000000;
out_52_min       0.0000000000000000;
out_53_max       0.0000000000000000;
out_53_min       0.0000000000000000;
out_54_max       2230.4499999999998181;
out_54_min       283.9370000000000118;
out_55_max       21531.2999999999992724;
out_55_min       -0.0000000180828000;
}

range_min         0;
range_max         1;
nr_features         55;

// ************************************************************************* //