/*--------------------------------*- C++ -*----------------------------------*\
| =========                 |                                                 |
| \\      /  F ield         | OpenFOAM: The Open Source CFD Toolbox           |
|  \\    /   O peration     | Version:  2.1.0                                 |
|   \\  /    A nd           | Web:      www.OpenFOAM.org                      |
|    \\/     M anipulation  |                                                 |
\*---------------------------------------------------------------------------*/
FoamFile
{
    version     2.0;
    format      ascii;
    class       dictionary;
    location    "constant";
    object      ANNProperties;
}
// * * * * * * * * * * * * * * * * * * * * * * * * * * * * * * * * * * * * * //


ANN_scaler         MinMax;

in_scale
{
in_1_max       1.0000000000000000;
in_1_min       0.0000000000000000;
in_2_max       0.9900000000000000;
in_2_min       0.0000000000000000;
in_3_max       1.0000000000000000;
in_3_min       0.0000000000000000;
}

out_scale
{
out_1_max       1.0000000000000000;
out_1_min       0.0000000000000000;
out_2_max       0.2330000000000000;
out_2_min       0.0000000000000000;
out_3_max       0.1300660000000000;
out_3_min       0.0000000000000000;
out_4_max       0.1029540000000000;
out_4_min       0.0000000000000000;
out_5_max       0.1371060000000000;
out_5_min       0.0000000000000000;
out_6_max       2230.4499999999998181;
out_6_min       283.9370000000000118;
out_7_max       21531.2999999999992724;
out_7_min       -0.0000000180828000;
out_8_max       0.0000115664788870;
out_8_min       0.0000014680882376;
out_9_max       0.0000733570000000;
out_9_min       0.0000175979000000;
out_10_max       0.0000115664000000;
out_10_min       0.0000014680900000;
}

range_min         0;
range_max         1;
nr_features         10;

input_layer         //input_1;
output_layer        //dense_2;

// ************************************************************************* //