/*--------------------------------*- C++ -*----------------------------------*\
| =========                 |                                                 |
| \\      /  F ield         | OpenFOAM: The Open Source CFD Toolbox           |
|  \\    /   O peration     | Version:  2.1.0                                 |
|   \\  /    A nd           | Web:      www.OpenFOAM.org                      |
|    \\/     M anipulation  |                                                 |
\*---------------------------------------------------------------------------*/
FoamFile
{
    version     2.0;
    format      ascii;
    class       dictionary;
    location    "constant";
    object      ANNProperties;
}
// * * * * * * * * * * * * * * * * * * * * * * * * * * * * * * * * * * * * * //


ANN_scaler         Standard;

in_scale
{
in_1_mean      0.4999999999999999;
in_1_var        0.2892519086652557;
in_2_mean      0.4949999999959955;
in_2_var        0.3159509455594174;
in_3_mean      0.5000000000000324;
in_3_var        0.2892519086655237;
}

out_scale
{
out_1_mean      0.4831972257521323;
out_1_var       0.2934137660851940;
out_2_mean      0.0803637968083712;
out_2_var       0.0644037450897975;
out_3_mean      0.0245017901525971;
out_3_var       0.0244489767802259;
out_4_mean      0.0165336685116599;
out_4_var       0.0182749286202992;
out_5_mean      0.0075511734555137;
out_5_var       0.0091030859428560;
out_6_mean      0.0000000000000000;
out_6_var       1.0000000000000000;
out_7_mean      556.8075164811646118;
out_7_var       260.3178804373777666;
out_8_mean      156.8055795915179260;
out_8_var       606.2714374727464701;
out_9_mean      0.0000411725773128;
out_9_var       0.0000131592830505;
out_10_mean      0.0000291365693937;
out_10_var       0.0000095138049238;
out_11_mean      0.0000052434464598;
out_11_var       0.0000020736508191;
}
nr_features         11;

// this is defined by the uff-conversion
input_layer           input_1_3;
output_layer          dense_4_1;

// ************************************************************************* //
